data_loads_updated/F_out.txt
! data exported through PowerModelsDistribution.jl
Clear
new circuit.Lower_Hunter_Region_D014470 bus1=41 basekv=0.433 basemva=1.0 pu=1.0 mvasc1=1e6 mvasc3=1e6 angle=0 

! vsource

! linecode

! line
new line.line5 bus1=46 bus2=47 linecode=415V_185CU4_P_L_* length=51.84 units=m 
new line.line2 bus1=43 bus2=44 linecode=415V_185CU4_P_L_* length=65.29 units=m 
new line.line7 bus1=48 bus2=141 linecode=240AL length=31.02 units=m 
new line.line8 bus1=42 bus2=142 linecode=415V_185CU4_P_L_* length=40.3 units=m 
new line.line13 bus1=51 bus2=144 linecode=240AL length=0.1 units=m 
new line.line9 bus1=45 bus2=49 linecode=415V_185CU4_P_L_* length=31.78 units=m 
new line.line6 bus1=47 bus2=48 linecode=240AL length=58.78 units=m 
new line.line12 bus1=48 bus2=51 linecode=240AL length=38.36 units=m 
new line.line14 bus1=51 bus2=145 linecode=240AL length=32.91 units=m 
new line.line3 bus1=44 bus2=45 linecode=415V_185CU4_P_L_* length=32.18 units=m 
new line.line10 bus1=49 bus2=50 linecode=415V_185CU4_P_L_* length=44.36 units=m 
new line.line4 bus1=45 bus2=46 linecode=415V_185CU4_P_L_* length=39.24 units=m 
new line.line1 bus1=42 bus2=43 linecode=415V_185CU4_P_L_* length=40.37 units=m 
new line.line0 bus1=41 bus2=42 linecode=415V_185CU4_P_L_* length=22.68 units=m 
new line.line11 bus1=50 bus2=143 linecode=415V_185CU4_P_L_* length=40.36 units=m 

! load
new load.load24 phases=3 bus1=46.1.2.3.0 kv=0.433 kw=1.0 kvar=1.0 model=1 conn=wye vminpu=0.7 vmaxpu=1.3 
new load.load26 phases=3 bus1=43.1.2.3.0 kv=0.433 kw=1.0 kvar=1.0 model=1 conn=wye vminpu=0.7 vmaxpu=1.3 
new load.load2 phases=3 bus1=44.1.2.3.0 kv=0.433 kw=1.0 kvar=1.0 model=1 conn=wye vminpu=0.7 vmaxpu=1.3 
new load.load11 phases=3 bus1=144.1.2.3.0 kv=0.433 kw=1.0 kvar=1.0 model=1 conn=wye vminpu=0.7 vmaxpu=1.3 
new load.load3 phases=3 bus1=44.1.2.3.0 kv=0.433 kw=1.0 kvar=1.0 model=1 conn=wye vminpu=0.7 vmaxpu=1.3 
new load.load8 phases=3 bus1=142.1.2.3.0 kv=0.433 kw=1.0 kvar=1.0 model=1 conn=wye vminpu=0.7 vmaxpu=1.3 
new load.load13 phases=3 bus1=49.1.2.3.0 kv=0.433 kw=1.0 kvar=1.0 model=1 conn=wye vminpu=0.7 vmaxpu=1.3 
new load.load21 phases=3 bus1=50.1.2.3.0 kv=0.433 kw=1.0 kvar=1.0 model=1 conn=wye vminpu=0.7 vmaxpu=1.3 
new load.load12 phases=3 bus1=49.1.2.3.0 kv=0.433 kw=1.0 kvar=1.0 model=1 conn=wye vminpu=0.7 vmaxpu=1.3 
new load.load22 phases=3 bus1=50.1.2.3.0 kv=0.433 kw=1.0 kvar=1.0 model=1 conn=wye vminpu=0.7 vmaxpu=1.3 
new load.load29 phases=3 bus1=42.1.2.3.0 kv=0.433 kw=1.0 kvar=1.0 model=1 conn=wye vminpu=0.7 vmaxpu=1.3 
new load.load10 phases=3 bus1=144.1.2.3.0 kv=0.433 kw=1.0 kvar=1.0 model=1 conn=wye vminpu=0.7 vmaxpu=1.3 
new load.load28 phases=3 bus1=42.1.2.3.0 kv=0.433 kw=1.0 kvar=1.0 model=1 conn=wye vminpu=0.7 vmaxpu=1.3 
new load.load7 phases=3 bus1=142.1.2.3.0 kv=0.433 kw=1.0 kvar=1.0 model=1 conn=wye vminpu=0.7 vmaxpu=1.3 
new load.load15 phases=3 bus1=48.1.2.3.0 kv=0.433 kw=1.0 kvar=1.0 model=1 conn=wye vminpu=0.7 vmaxpu=1.3 
new load.load27 phases=3 bus1=43.1.2.3.0 kv=0.433 kw=1.0 kvar=1.0 model=1 conn=wye vminpu=0.7 vmaxpu=1.3 
new load.load18 phases=3 bus1=145.1.2.3.0 kv=0.433 kw=1.0 kvar=1.0 model=1 conn=wye vminpu=0.7 vmaxpu=1.3 
new load.load5 phases=3 bus1=141.1.2.3.0 kv=0.433 kw=1.0 kvar=1.0 model=1 conn=wye vminpu=0.7 vmaxpu=1.3 
new load.load1 phases=3 bus1=47.1.2.3.0 kv=0.433 kw=1.0 kvar=1.0 model=1 conn=wye vminpu=0.7 vmaxpu=1.3 
new load.load4 phases=3 bus1=141.1.2.3.0 kv=0.433 kw=1.0 kvar=1.0 model=1 conn=wye vminpu=0.7 vmaxpu=1.3 
new load.load14 phases=3 bus1=49.1.2.3.0 kv=0.433 kw=1.0 kvar=1.0 model=1 conn=wye vminpu=0.7 vmaxpu=1.3 
new load.load20 phases=3 bus1=45.1.2.3.0 kv=0.433 kw=1.0 kvar=1.0 model=1 conn=wye vminpu=0.7 vmaxpu=1.3 
new load.load23 phases=3 bus1=46.1.2.3.0 kv=0.433 kw=1.0 kvar=1.0 model=1 conn=wye vminpu=0.7 vmaxpu=1.3 
new load.load19 phases=3 bus1=45.1.2.3.0 kv=0.433 kw=1.0 kvar=1.0 model=1 conn=wye vminpu=0.7 vmaxpu=1.3 
new load.load17 phases=3 bus1=145.1.2.3.0 kv=0.433 kw=1.0 kvar=1.0 model=1 conn=wye vminpu=0.7 vmaxpu=1.3 
new load.load6 phases=3 bus1=141.1.2.3.0 kv=0.433 kw=1.0 kvar=1.0 model=1 conn=wye vminpu=0.7 vmaxpu=1.3 
new load.load9 phases=3 bus1=142.1.2.3.0 kv=0.433 kw=1.0 kvar=1.0 model=1 conn=wye vminpu=0.7 vmaxpu=1.3 
new load.load16 phases=3 bus1=48.1.2.3.0 kv=0.433 kw=1.0 kvar=1.0 model=1 conn=wye vminpu=0.7 vmaxpu=1.3 
new load.load25 phases=3 bus1=43.1.2.3.0 kv=0.433 kw=1.0 kvar=1.0 model=1 conn=wye vminpu=0.7 vmaxpu=1.3 
new load.load30 phases=3 bus1=143.1.2.3.0 kv=0.433 kw=1.0 kvar=1.0 model=1 conn=wye vminpu=0.7 vmaxpu=1.3 

Buscoords D014470_buscoords.csv
set voltagebases=[0.4]
set tolerance=0.000001
set defaultbasefreq=50.0
calcvoltagebases
solve
